<?xml version="1.0" encoding="UTF-8"?>

<!-- generated on 2024-12-11 03:30:40 by Eclipse SUMO netedit Version 1.21.0
-->

<routes xmlns:xsi="http://www.w3.org/2001/XMLSchema-instance" xsi:noNamespaceSchemaLocation="http://sumo.dlr.de/xsd/routes_file.xsd">
    <!-- Routes -->
    <route id="r_0" edges="E0 E1"/>
    <route id="r_1" edges="-E3 -E2"/>
    <route id="r_2" edges="-E1 -E0"/>
    <route id="r_3" edges="E2 E3"/>
    <route id="r_4" edges="E0 -E2"/>
    <route id="r_5" edges="E2 E1"/>
    <route id="r_6" edges="-E3 -E0"/>
    <route id="r_7" edges="-E1 E3"/>
    <!-- Vehicles, persons and containers (sorted by depart) -->
    <flow id="f_0" begin="0.00" from="E0" to="E1" end="200000.00" vehsPerHour="600"/>
    <flow id="f_1" begin="0.00" from="-E3" to="-E2" end="200000.00" vehsPerHour="600"/>
    <flow id="f_10" begin="0.00" from="-E3" to="E1" end="200000.00" vehsPerHour="300"/>
    <flow id="f_11" begin="0.00" from="-E1" to="-E2" end="200000.00" vehsPerHour="300"/>
    <flow id="f_12" begin="0.00" from="E2" to="-E0" end="200000.00" vehsPerHour="300"/>
    <flow id="f_2" begin="0.00" from="-E1" to="-E0" end="200000.00" vehsPerHour="600"/>
    <flow id="f_3" begin="0.00" from="E2" to="E3" end="200000.00" vehsPerHour="600"/>
    <flow id="f_4" begin="0.00" from="-E1" to="-E0" end="200000.00" vehsPerHour="600"/>
    <flow id="f_5" begin="0.00" from="E0" to="-E2" end="200000.00" vehsPerHour="300"/>
    <flow id="f_6" begin="0.00" from="-E3" to="-E0" end="200000.00" vehsPerHour="300"/>
    <flow id="f_7" begin="0.00" from="-E1" to="E3" end="200000.00" vehsPerHour="300"/>
    <flow id="f_8" begin="0.00" from="E2" to="E1" end="200000.00" vehsPerHour="300"/>
    <flow id="f_9" begin="0.00" from="E0" to="E3" end="200000.00" vehsPerHour="300"/>
</routes>
